REMARK  12 active torsions:
REMARK  status: ('A' for Active; 'I' for Inactive)
REMARK    1  A    between atoms: N7_7  and  C18_18 
REMARK    2  A    between atoms: C8_8  and  C11_11 
REMARK       I    between atoms: C11_11  and  N12_12 
REMARK    3  A    between atoms: N12_12  and  C13_13 
REMARK    4  A    between atoms: C18_18  and  C19_19 
REMARK    5  A    between atoms: C19_19  and  C20_20 
REMARK    6  A    between atoms: C19_19  and  O21_21 
REMARK    7  A    between atoms: C20_20  and  N22_22 
REMARK    8  A    between atoms: C20_20  and  C23_23 
REMARK       I    between atoms: N22_22  and  C24_24 
REMARK    9  A    between atoms: C23_23  and  S74_34 
REMARK   10  A    between atoms: C24_24  and  C29_26 
REMARK   11  A    between atoms: C33_30  and  O38_32 
REMARK   12  A    between atoms: S74_34  and  C77_35 
ROOT
ATOM      1  C1  1UN A 201       2.645  -4.153  16.315  1.00 24.55     0.018 C 
ATOM      2  C2  1UN A 201       3.461  -5.453  16.593  1.00 20.71    -0.006 C 
ATOM      3  C3  1UN A 201       2.685  -6.686  16.166  1.00 19.44     0.005 C 
ATOM      4  C4  1UN A 201       2.272  -6.548  14.711  1.00 21.07     0.000 C 
ATOM      5  C5  1UN A 201       1.434  -5.277  14.506  1.00 24.78     0.000 C 
ATOM      6  C6  1UN A 201       2.293  -4.012  14.826  1.00 20.62     0.007 C 
ATOM      7  N7  1UN A 201       4.738  -2.846  16.041  1.00 21.30     0.105 N 
ATOM      8  C8  1UN A 201       5.578  -4.031  16.322  1.00 20.47     0.314 C 
ATOM      9  C9  1UN A 201       4.828  -5.323  15.889  1.00 21.72     0.050 C 
ATOM     10  C10 1UN A 201       3.483  -2.959  16.821  1.00 23.23     0.278 C 
ENDROOT
BRANCH   7  11
ATOM     11  C18 1UN A 201       5.338  -1.596  16.518  1.00 22.63     0.307 C 
BRANCH  11  12
ATOM     12  C19 1UN A 201       4.820  -0.446  15.641  1.00 19.98     0.170 C 
BRANCH  12  13
ATOM     13  C20 1UN A 201       5.512  -0.302  14.283  1.00 16.51     0.124 C 
BRANCH  13  14
ATOM     14  N22 1UN A 201       4.758   0.743  13.606  1.00 14.95    -0.349 N 
ATOM     15  C24 1UN A 201       3.879   0.393  12.645  1.00 18.85     0.252 C 
ATOM     16  O25 1UN A 201       3.710  -0.787  12.306  1.00  8.39    -0.268 OA
ATOM     17  HNM 1UN A 201       4.879   1.681  13.867  1.00  0.00     0.163 HD
BRANCH  15  18
ATOM     18  C29 1UN A 201       3.198   1.488  11.992  1.00 18.43     0.040 A 
ATOM     19  C30 1UN A 201       3.939   2.596  11.522  1.00 21.44     0.018 A 
ATOM     20  C31 1UN A 201       3.324   3.687  10.918  1.00 15.28     0.004 A 
ATOM     21  C32 1UN A 201       1.951   3.659  10.753  1.00 20.01     0.037 A 
ATOM     22  C33 1UN A 201       1.206   2.570  11.229  1.00 22.21     0.072 A 
ATOM     23  C34 1UN A 201       1.806   1.460  11.829  1.00 20.56    -0.013 A 
ATOM     24  C39 1UN A 201       0.935   0.343  12.334  1.00 15.59     0.052 C 
BRANCH  22  25
ATOM     25  O38 1UN A 201      -0.164   2.619  11.201  1.00 25.11    -0.360 OA
ATOM     26  HO  1UN A 201      -0.438   3.374  10.694  1.00  0.00     0.217 HD
ENDBRANCH  22  25
ENDBRANCH  15  18
ENDBRANCH  13  14
BRANCH  13  27
ATOM     27  C23 1UN A 201       6.932   0.183  14.310  1.00 19.24     0.107 C 
BRANCH  27  28
ATOM     28  S74 1UN A 201       7.747  -0.242  12.758  1.00 24.64    -0.128 SA
BRANCH  28  29
ATOM     29  C77 1UN A 201       7.704   1.203  11.820  1.00 23.51     0.000 A 
ATOM     30  C78 1UN A 201       7.968   1.062  10.464  1.00 23.21     0.018 A 
ATOM     31  C79 1UN A 201       7.972   2.204   9.686  1.00 24.60     0.001 A 
ATOM     32  C80 1UN A 201       7.714   3.451  10.264  1.00 26.95     0.000 A 
ATOM     33  C81 1UN A 201       7.443   3.580  11.630  1.00 26.67     0.001 A 
ATOM     34  C82 1UN A 201       7.436   2.428  12.412  1.00 24.28     0.018 A 
ENDBRANCH  28  29
ENDBRANCH  27  28
ENDBRANCH  13  27
ENDBRANCH  12  13
BRANCH  12  35
ATOM     35  O21 1UN A 201       5.032   0.729  16.433  1.00 18.38    -0.392 OA
ATOM     36  HOL 1UN A 201       5.974   0.772  16.537  1.00  0.00     0.210 HD
ENDBRANCH  12  35
ENDBRANCH  11  12
ENDBRANCH   7  11
BRANCH   8  37
ATOM     37  C11 1UN A 201       6.848  -3.955  15.521  1.00 17.31     0.252 C 
ATOM     38  O17 1UN A 201       6.830  -3.538  14.345  1.00 12.42    -0.271 OA
ATOM     39  N12 1UN A 201       7.886  -4.465  16.233  1.00 14.35    -0.351 N 
ATOM     40  HNC 1UN A 201       7.720  -4.933  17.075  1.00  0.00     0.163 HD
BRANCH  39  41
ATOM     41  C13 1UN A 201       9.289  -4.534  15.760  1.00 14.28     0.022 C 
ATOM     42  C14 1UN A 201       9.834  -3.158  15.420  1.00 12.88     0.037 C 
ATOM     43  C15 1UN A 201       9.334  -5.409  14.470  1.00 13.75     0.037 C 
ATOM     44  C16 1UN A 201      10.121  -5.118  16.937  1.00 11.47     0.037 C 
ENDBRANCH  39  41
ENDBRANCH   8  37
TORSDOF 12
